*NODE, NSET=Nall
       1,3.000000000000e+02,0.000000000000e+00,-4.017212000000e-14
       2,0.000000000000e+00,0.000000000000e+00,-3.000000000000e+02
       3,3.000000000000e+02,3.000000000000e+02,-7.347881000000e-14
       4,-5.510911000000e-14,3.000000000000e+02,-3.000000000000e+02
       5,-3.000000000000e+02,0.000000000000e+00,3.330669000000e-14
       6,-3.000000000000e+02,3.000000000000e+02,3.673940000000e-14
       7,3.000000000000e+02,-3.000000000000e+02,-6.865426000000e-15
       8,-5.510911000000e-14,-3.000000000000e+02,-3.000000000000e+02
       9,-3.000000000000e+02,-3.000000000000e+02,1.033528000000e-13
      10,0.000000000000e+00,0.000000000000e+00,3.000000000000e+02
      11,1.836970000000e-14,-3.000000000000e+02,3.000000000000e+02
      12,1.836970000000e-14,3.000000000000e+02,3.000000000000e+02
      13,1.962094000000e+01,3.000000000000e+02,-2.993577000000e+02
      14,3.915786000000e+01,3.000000000000e+02,-2.974335000000e+02
      15,5.852710000000e+01,3.000000000000e+02,-2.942356000000e+02
      16,7.764571000000e+01,3.000000000000e+02,-2.897777000000e+02
      17,9.643184000000e+01,3.000000000000e+02,-2.840790000000e+02
      18,1.148050000000e+02,3.000000000000e+02,-2.771639000000e+02
      19,1.326866000000e+02,3.000000000000e+02,-2.690618000000e+02
      20,1.500000000000e+02,3.000000000000e+02,-2.598076000000e+02
** ... 2956 like lines cut
*ELEMENT, TYPE=S4, ELSET=Eall
   409,      4,     36,    401,     13
   410,     13,    401,    402,     14
   411,     14,    402,    403,     15
   412,     15,    403,    404,     16
   413,     16,    404,    405,     17
   414,     17,    405,    406,     18
   415,     18,    406,    407,     19
   416,     19,    407,    408,     20
   417,     20,    408,    409,     21
   418,     21,    409,    410,     22
   419,     22,    410,    411,     23
   420,     23,    411,    412,     24
   421,     24,    412,    413,     25
   422,     25,    413,    414,     26
   423,     26,    414,    415,     27
   424,     27,    415,    416,     28
   425,     28,    416,    417,     29
   426,     29,    417,    418,     30
   427,     30,    418,    419,     31
   428,     31,    419,    420,     32
** ... 1778 like lines cut
*ELEMENT, TYPE=S3, ELSET=Eall
  2207,  1993,   2009,   1992 
  2208,  1999,   2002,   1998 
  2209,  2001,   1995,   2000 
  2210,  2005,   1990,   2004 
*ELEMENT, TYPE=S4, ELSET=Eall
  2211,    295,   2011,    271,     11
  2212,    296,   2012,   2011,    295
  2213,    297,   2013,   2012,    296
  2214,    298,   2014,   2013,    297
  2215,    299,   2015,   2014,    298
  2216,    300,   2016,   2015,    299
  2217,    301,   2017,   2016,    300
  2218,    302,   2018,   2017,    301
  2219,    303,   2019,   2018,    302
  2220,    304,   2020,   2019,    303
  2221,    305,   2021,   2020,    304
  2222,    306,   2022,   2021,    305
  2223,    307,   2023,   2022,    306
  2224,    308,   2024,   2023,    307
  2225,    309,   2025,   2024,    308
  2226,    310,   2026,   2025,    309
  2227,    311,   2027,   2026,    310
  2228,    312,   2028,   2027,    311
  2229,    313,   2029,   2028,    312
  2230,    314,   2030,   2029,    313
** ... 338 like lines cut
*ELEMENT, TYPE=S3, ELSET=Eall
  2569,  2315,   2331,   2314 
  2570,  2321,   2324,   2320 
  2571,  2323,   2317,   2322 
  2572,  2327,   2312,   2326 
*ELEMENT, TYPE=S4, ELSET=Eall
  2573,    272,   2333,     86,      1
  2574,    273,   2334,   2333,    272
  2575,    274,   2335,   2334,    273
  2576,    275,   2336,   2335,    274
  2577,    276,   2337,   2336,    275
  2578,    277,   2338,   2337,    276
  2579,    278,   2339,   2338,    277
  2580,    279,   2340,   2339,    278
  2581,    280,   2341,   2340,    279
  2582,    281,   2342,   2341,    280
  2583,    282,   2343,   2342,    281
  2584,    283,   2344,   2343,    282
  2585,    284,   2345,   2344,    283
  2586,    285,   2346,   2345,    284
  2587,    286,   2347,   2346,    285
  2588,    287,   2348,   2347,    286
  2589,    288,   2349,   2348,    287
  2590,    289,   2350,   2349,    288
  2591,    290,   2351,   2350,    289
  2592,    291,   2352,   2351,    290
** ... 338 like lines cut
*ELEMENT, TYPE=S3, ELSET=Eall
  2931,  2637,   2653,   2636 
  2932,  2643,   2646,   2642 
  2933,  2645,   2639,   2644 
  2934,  2649,   2634,   2648 
*ELEMENT, TYPE=S4, ELSET=Eall
  2935,    318,   2655,    354,     10
  2936,    319,   2656,   2655,    318
  2937,    320,   2657,   2656,    319
  2938,    321,   2658,   2657,    320
  2939,    322,   2659,   2658,    321
  2940,    323,   2660,   2659,    322
  2941,    324,   2661,   2660,    323
  2942,    325,   2662,   2661,    324
  2943,    326,   2663,   2662,    325
  2944,    327,   2664,   2663,    326
  2945,    328,   2665,   2664,    327
  2946,    329,   2666,   2665,    328
  2947,    330,   2667,   2666,    329
  2948,    331,   2668,   2667,    330
  2949,    332,   2669,   2668,    331
  2950,    333,   2670,   2669,    332
  2951,    334,   2671,   2670,    333
  2952,    335,   2672,   2671,    334
  2953,    336,   2673,   2672,    335
  2954,    337,   2674,   2673,    336
** ... 338 like lines cut
*ELEMENT, TYPE=S3, ELSET=Eall
  3293,  2959,   2975,   2958 
  3294,  2965,   2968,   2964 
  3295,  2967,   2961,   2966 
  3296,  2971,   2956,   2970 
** Names based on S4R
*ELSET,ELSET=S4R 
409, 
410, 
411, 
412, 
413, 
414, 
415, 
416, 
417, 
418, 
419, 
420, 
421, 
422, 
423, 
424, 
425, 
426, 
427, 
428, 
** ... 2852 like lines cut
** Names based on BC62F4
*ELSET,ELSET=BC62F4 
769, 
770, 
771, 
772, 
773, 
774, 
775, 
776, 
777, 
778, 
779, 
780, 
781, 
782, 
783, 
784, 
785, 
786, 
787, 
788, 
** ... 4 like lines cut
** Names based on Face_12
*ELSET,ELSET=Face_12 
1849, 
1850, 
1851, 
1852, 
1853, 
1854, 
1855, 
1856, 
1857, 
1858, 
1859, 
1860, 
1861, 
1862, 
1863, 
1864, 
1865, 
1866, 
1867, 
1868, 
** ... 342 like lines cut
** Names based on Pforce
*NSET,NSET=Pforce 
5, 
** Names based on BC61F4
*ELSET,ELSET=BC61F4 
409, 
410, 
411, 
412, 
413, 
414, 
415, 
416, 
417, 
418, 
419, 
420, 
421, 
422, 
423, 
424, 
425, 
426, 
427, 
428, 
** ... 4 like lines cut
** Names based on BC
*NSET,NSET=BC 
9, 
11, 
295, 
296, 
297, 
298, 
299, 
300, 
301, 
302, 
303, 
304, 
305, 
306, 
307, 
308, 
309, 
310, 
311, 
312, 
** ... 5 like lines cut
** Names based on S3
*ELSET,ELSET=S3 
2207, 
2208, 
2209, 
2210, 
2569, 
2570, 
2571, 
2572, 
2931, 
2932, 
2933, 
2934, 
3293, 
3294, 
3295, 
3296, 
** Names based on BC6
*NSET,NSET=BC6 
3, 
4, 
6, 
13, 
14, 
15, 
16, 
17, 
18, 
19, 
20, 
21, 
22, 
23, 
24, 
25, 
26, 
27, 
28, 
29, 
** ... 29 like lines cut
** Names based on BC8
*NSET,NSET=BC8 
3, 
4, 
13, 
14, 
15, 
16, 
17, 
18, 
19, 
20, 
21, 
22, 
23, 
24, 
25, 
26, 
27, 
28, 
29, 
30, 
** ... 5 like lines cut
** Names based on Face_11
*ELSET,ELSET=Face_11 
1129, 
1130, 
1131, 
1132, 
1133, 
1134, 
1135, 
1136, 
1137, 
1138, 
1139, 
1140, 
1141, 
1142, 
1143, 
1144, 
1145, 
1146, 
1147, 
1148, 
** ... 340 like lines cut
** Names based on Face_14
*ELSET,ELSET=Face_14 
2573, 
2574, 
2575, 
2576, 
2577, 
2578, 
2579, 
2580, 
2581, 
2582, 
2583, 
2584, 
2585, 
2586, 
2587, 
2588, 
2589, 
2590, 
2591, 
2592, 
** ... 342 like lines cut
** Names based on Face_8
*ELSET,ELSET=Face_8 
2211, 
2212, 
2213, 
2214, 
2215, 
2216, 
2217, 
2218, 
2219, 
2220, 
2221, 
2222, 
2223, 
2224, 
2225, 
2226, 
2227, 
2228, 
2229, 
2230, 
** ... 342 like lines cut
** Names based on Face_10
*ELSET,ELSET=Face_10 
2935, 
2936, 
2937, 
2938, 
2939, 
2940, 
2941, 
2942, 
2943, 
2944, 
2945, 
2946, 
2947, 
2948, 
2949, 
2950, 
2951, 
2952, 
2953, 
2954, 
** ... 342 like lines cut
** Names based on BC7
*NSET,NSET=BC7 
3, 
12, 
355, 
356, 
357, 
358, 
359, 
360, 
361, 
362, 
363, 
364, 
365, 
366, 
367, 
368, 
369, 
370, 
371, 
372, 
** ... 5 like lines cut
** Names based on BC2
*NSET,NSET=BC2 
8, 
9, 
212, 
213, 
214, 
215, 
216, 
217, 
218, 
219, 
220, 
221, 
222, 
223, 
224, 
225, 
226, 
227, 
228, 
229, 
** ... 5 like lines cut
** Names based on BC3
*NSET,NSET=BC3 
7, 
8, 
161, 
162, 
163, 
164, 
165, 
166, 
167, 
168, 
169, 
170, 
171, 
172, 
173, 
174, 
175, 
176, 
177, 
178, 
** ... 5 like lines cut
** Names based on Face_7
*ELSET,ELSET=Face_7 
1489, 
1490, 
1491, 
1492, 
1493, 
1494, 
1495, 
1496, 
1497, 
1498, 
1499, 
1500, 
1501, 
1502, 
1503, 
1504, 
1505, 
1506, 
1507, 
1508, 
** ... 340 like lines cut
** Names based on Pforce2
*NSET,NSET=Pforce2 
1, 
** Names based on BC5
*NSET,NSET=BC5 
6, 
12, 
378, 
379, 
380, 
381, 
382, 
383, 
384, 
385, 
386, 
387, 
388, 
389, 
390, 
391, 
392, 
393, 
394, 
395, 
** ... 5 like lines cut
** Names based on Face_9
*ELSET,ELSET=Face_9 
769, 
770, 
771, 
772, 
773, 
774, 
775, 
776, 
777, 
778, 
779, 
780, 
781, 
782, 
783, 
784, 
785, 
786, 
787, 
788, 
** ... 340 like lines cut
** Names based on Face_13
*ELSET,ELSET=Face_13 
409, 
410, 
411, 
412, 
413, 
414, 
415, 
416, 
417, 
418, 
419, 
420, 
421, 
422, 
423, 
424, 
425, 
426, 
427, 
428, 
** ... 340 like lines cut
** Names based on BC4
*NSET,NSET=BC4 
7, 
11, 
235, 
236, 
237, 
238, 
239, 
240, 
241, 
242, 
243, 
244, 
245, 
246, 
247, 
248, 
249, 
250, 
251, 
252, 
** ... 5 like lines cut
** Surfaces based on Face_8
*SURFACE, NAME=Face_8
** Surfaces based on BC8
*SURFACE, NAME=BC8
** Surfaces based on Face_13
*SURFACE, NAME=Face_13
** Surfaces based on BC5
*SURFACE, NAME=BC5
** Surfaces based on Face_7
*SURFACE, NAME=Face_7
** Surfaces based on BC3
*SURFACE, NAME=BC3
** Surfaces based on Pforce2
*SURFACE, NAME=Pforce2
** Surfaces based on Face_9
*SURFACE, NAME=Face_9
** Surfaces based on Face_10
*SURFACE, NAME=Face_10
** Surfaces based on BC61F4
*SURFACE, NAME=BC61F4
** Surfaces based on Face_11
*SURFACE, NAME=Face_11
** Surfaces based on Face_14
*SURFACE, NAME=Face_14
** Surfaces based on Pforce
*SURFACE, NAME=Pforce
** Surfaces based on all
*SURFACE, NAME=all
469, SPOS 
1152, SPOS 
2573, SPOS 
1887, SPOS 
446, SPOS 
829, SPOS 
1129, SPOS 
1512, SPOS 
432, SPOS 
2611, SPOS 
409, SPOS 
792, SPOS 
806, SPOS 
2958, SPOS 
1489, SPOS 
2235, SPOS 
769, SPOS 
2959, SPOS 
1189, SPOS 
1849, SPOS 
** ... 2868 like lines cut
** Surfaces based on Face_12
*SURFACE, NAME=Face_12
** Surfaces based on BC
*SURFACE, NAME=BC
** Surfaces based on BC2
*SURFACE, NAME=BC2
** Surfaces based on BC6
*SURFACE, NAME=BC6
** Surfaces based on BC7
*SURFACE, NAME=BC7
** Surfaces based on S4R
*SURFACE, NAME=S4R
** Surfaces based on S3
*SURFACE, NAME=S3
** Surfaces based on BC4
*SURFACE, NAME=BC4
** Surfaces based on BC62F4
*SURFACE, NAME=BC62F4

*MATERIAL,NAME=mat
*ELASTIC
3.0000E+06,0.3


*DENSITY
0.0000E+00
*EXPANSION
0.0000E+00

*SHELL SECTION,MATERIAL=mat,ELSET=Eall,,OFFSET=0.0000E+00
3.0000E+00
*BOUNDARY
BC,1,1,0
BC,3,3,0

*BOUNDARY
BC6,1,1,0
BC6,3,3,0

*BOUNDARY
BC8,1,1,0
BC8,3,3,0

*BOUNDARY
BC7,1,1,0
BC7,3,3,0

*BOUNDARY
BC2,1,1,0
BC2,3,3,0

*BOUNDARY
BC3,1,1,0
BC3,3,3,0

*BOUNDARY
BC5,1,1,0
BC5,3,3,0

*BOUNDARY
BC4,1,1,0
BC4,3,3,0


*STEP
*STATIC
*CLOAD
Pforce,1,1.0000E+00

*CLOAD
Pforce2,1,-1.0000E+00
  *NODE FILE 
U,
  *EL FILE
S,
*NODE PRINT,NSET=Pforce
U
*NODE PRINT,NSET=Leftn
RF
*NODE PRINT,NSET=Bottomn
RF
*NODE PRINT,NSET=Topn
RF
*NODE PRINT,NSET=Fix
RF
*NODE PRINT,NSET=Side2
RF
*NODE PRINT,NSET=Side1
RF
*NODE PRINT,NSET=Fix
RF
*NODE PRINT,NSET=BC
RF
*NODE PRINT,NSET=BC6
RF
*NODE PRINT,NSET=BC8
RF
*NODE PRINT,NSET=BC7
RF
*NODE PRINT,NSET=BC2
RF
*NODE PRINT,NSET=BC3
RF
*NODE PRINT,NSET=BC5
RF
*NODE PRINT,NSET=BC4
RF
*NODE PRINT,NSET=Pforce
RF
*NODE PRINT,NSET=Pforce
RF
*END STEP
